<?xml version="1.0" encoding="UTF-8"?>
<routes>
    <route>
        <start>
            <id>1571313279009</id>
            <wp>end</wp>
        </start>
        <end>
            <id>1571313271465</id>
            <wp>start</wp>
        </end>
    </route>

     <route>
        <start>
            <id>1571313271465</id>
            <wp>195</wp>
        </start>
        <end>
            <id>1571313244130</id>
            <wp>start</wp>
        </end>
    </route>

</routes>